216

C	11.367818	16.474695	1.529796
C	12.278313	16.179794	2.539791
C	11.847259	15.575980	3.720892
C	8.222003	12.631117	5.074814
C	7.303147	12.938901	4.058150
C	7.829668	13.628984	2.801527
C	10.739827	12.114347	0.786770
C	9.501832	12.682717	1.091469
C	9.136193	12.942170	2.411830
C	10.032098	12.604186	3.439262
C	11.005271	14.612733	6.294226
C	11.229628	11.960243	3.137646
C	9.665890	12.987254	4.847186
C	7.786700	12.022138	6.250505
C	9.584400	15.562573	2.891734
C	10.503350	15.254656	3.908276
C	9.976910	14.564573	5.164945
C	8.140567	15.206298	3.119440
C	7.066854	16.078786	7.180091
C	8.304994	15.510849	6.875173
C	8.670481	15.251452	5.554753
C	7.774422	15.589314	4.527432
C	6.576852	16.233106	4.829248
C	6.205309	16.458126	6.154072
C	6.438406	11.719496	6.436875
C	5.528005	12.014197	5.426725
C	6.801357	13.580928	1.672166
C	5.959197	12.617588	4.245460
C	10.019601	16.171795	1.716109
C	11.601205	11.734951	1.812911
H	7.169629	14.081984	0.772508
H	4.477582	11.757413	5.550824
H	5.230730	12.836010	3.469418
H	6.554800	12.544795	1.409109
H	5.874089	14.088320	1.957710
H	11.932774	14.105966	6.008368
H	9.292685	16.407012	0.939401
H	7.515725	15.774153	2.419460
H	5.252478	16.934770	6.374175
H	5.927706	16.559116	4.019428
H	8.986450	15.254047	7.682613
H	6.783757	16.229745	8.220087
H	11.698882	16.940006	0.603156
H	13.328721	16.436556	2.415696
H	12.575872	15.357462	4.496766
H	11.251238	15.648922	6.557624
H	6.107227	11.254534	7.363644
H	11.022780	11.962783	-0.253160
H	10.637312	14.111177	7.193727
H	11.878380	11.633746	3.947598
H	12.553701	11.257595	1.592982
H	10.290651	12.419384	5.547245
H	8.513566	11.787213	7.027338
H	8.820373	12.939114	0.283902
C	11.726182	4.671098	5.513054
C	12.636584	4.965800	6.523204
C	12.205391	5.569190	7.704469
C	8.580188	8.514176	9.058195
C	7.661238	8.206259	8.041653
C	8.187678	7.516176	6.784984
C	11.097734	9.030388	4.769838
C	9.859594	8.462451	5.074756
C	9.494108	8.203054	6.395176
C	10.390167	8.540916	7.422497
C	11.363231	6.532531	10.277763
C	11.587736	9.184708	7.120681
C	10.024021	8.157901	8.830489
C	8.144987	9.123398	10.233820
C	9.942585	5.582720	6.875115
C	10.861441	5.890503	7.891779
C	10.334921	6.580586	9.148402
C	8.498698	5.938856	7.102743
C	7.424762	5.065950	11.163159
C	8.662756	5.634319	10.858460
C	9.028396	5.893773	9.538099
C	8.132491	5.555789	8.510667
C	6.934960	4.911845	8.812283
C	6.563384	4.686554	10.137018
C	6.796771	9.426298	10.420133
C	5.886275	9.131397	9.410138
C	7.159318	7.564336	5.655703
C	6.317329	8.527582	8.229037
C	10.377888	4.973741	5.699424
C	11.959280	9.409728	5.795857
H	7.527276	7.062780	4.756202
H	4.835867	9.388158	9.534233
H	5.588717	8.309065	7.453164
H	6.913351	8.600524	5.392305
H	6.231815	7.057569	5.941561
H	12.290499	7.039923	9.992219
H	9.651022	4.738816	4.922591
H	7.873937	5.370987	6.402684
H	5.610887	4.209197	10.356947
H	6.286209	4.585349	8.002331
H	9.344215	5.890717	11.666027
H	7.141809	4.914385	12.203089
H	12.057361	4.206137	4.586285
H	13.687007	4.709016	6.399105
H	12.933858	5.787613	8.480511
H	11.609789	5.496398	10.540820
H	6.465706	9.891609	11.346773
H	11.380832	9.181348	3.729842
H	10.994959	7.033586	11.177422
H	12.236882	9.510719	7.930501
H	12.912110	9.886372	5.575754
H	10.648863	8.725756	9.530469
H	8.871903	9.358615	11.010528
H	9.178138	8.205650	4.267316
C	12.084271	16.474094	9.496363
C	12.994673	16.179392	10.506514
C	12.563481	15.576002	11.687778
C	8.938278	12.631016	13.041505
C	8.019327	12.938933	12.024963
C	8.545768	13.629016	10.768294
C	11.455823	12.114804	8.753148
C	10.217683	12.682741	9.058066
C	9.852197	12.942138	10.378486
C	10.748256	12.604276	11.405807
C	11.721321	14.612661	14.261073
C	11.945825	11.960484	11.103991
C	10.382111	12.987291	12.813799
C	8.503077	12.021794	14.217130
C	10.300674	15.562472	10.858424
C	11.219531	15.254689	11.875089
C	10.693010	14.564606	13.131712
C	8.856788	15.206336	11.086052
C	7.782851	16.079242	15.146468
C	9.020846	15.510873	14.841770
C	9.386485	15.251419	13.521409
C	8.490580	15.589403	12.493977
C	7.293050	16.233347	12.795592
C	6.921473	16.458638	14.120327
C	7.154860	11.718894	14.403443
C	6.244364	12.013795	13.393448
C	7.517407	13.580856	9.639013
C	6.675418	12.617610	12.212346
C	10.735978	16.171451	9.682733
C	12.317369	11.735464	9.779167
H	7.885366	14.082412	8.739512
H	5.193957	11.757034	13.517543
H	5.946806	12.836127	11.436473
H	7.271440	12.544668	9.375615
H	6.589904	14.087623	9.924870
H	12.648588	14.105269	13.975529
H	10.009111	16.406376	8.905901
H	8.232026	15.774205	10.385994
H	5.968976	16.935995	14.340257
H	6.644298	16.559843	11.985641
H	9.702305	15.254475	15.649337
H	7.499898	16.230807	16.186399
H	12.415451	16.939055	8.569595
H	14.045096	16.436176	10.382415
H	13.291948	15.357579	12.463821
H	11.967878	15.648794	14.524129
H	6.823796	11.253583	15.330083
H	11.738921	11.963844	7.713152
H	11.353049	14.111606	15.160731
H	12.594972	11.634473	11.913810
H	13.270200	11.258820	9.559064
H	11.006952	12.419436	13.513779
H	9.229993	11.786577	14.993838
H	9.536228	12.939542	8.250626
C	11.726182	18.767893	5.513054
C	12.636584	19.062594	6.523204
C	12.205391	19.665985	7.704469
C	8.580188	22.610970	9.058195
C	7.661238	22.303054	8.041653
C	8.187678	21.612971	6.784984
C	11.097734	23.127183	4.769838
C	9.859594	22.559246	5.074756
C	9.494108	22.299849	6.395176
C	10.390167	22.637711	7.422497
C	11.363231	20.629326	10.277763
C	11.587736	23.281503	7.120681
C	10.024021	22.254695	8.830489
C	8.144987	23.220192	10.233820
C	9.942585	19.679514	6.875115
C	10.861441	19.987298	7.891779
C	10.334921	20.677381	9.148402
C	8.498698	20.035651	7.102743
C	7.424762	19.162745	11.163159
C	8.662756	19.731114	10.858460
C	9.028396	19.990567	9.538099
C	8.132491	19.652584	8.510667
C	6.934960	19.008640	8.812283
C	6.563384	18.783349	10.137018
C	6.796771	23.523092	10.420133
C	5.886275	23.228192	9.410138
C	7.159318	21.661130	5.655703
C	6.317329	22.624377	8.229037
C	10.377888	19.070535	5.699424
C	11.959280	23.506523	5.795857
H	7.527276	21.159574	4.756202
H	4.835867	23.484953	9.534233
H	5.588717	22.405860	7.453164
H	6.913351	22.697319	5.392305
H	6.231815	21.154363	5.941561
H	12.290499	21.136718	9.992219
H	9.651022	18.835611	4.922591
H	7.873937	19.467781	6.402684
H	5.610887	18.305992	10.356947
H	6.286209	18.682144	8.002331
H	9.344215	19.987511	11.666027
H	7.141809	19.011180	12.203089
H	12.057361	18.302932	4.586285
H	13.687007	18.805810	6.399105
H	12.933858	19.884408	8.480511
H	11.609789	19.593193	10.540820
H	6.465706	23.988404	11.346773
H	11.380832	23.278142	3.729842
H	10.994959	21.130381	11.177422
H	12.236882	23.607513	7.930501
H	12.912110	23.983167	5.575754
H	10.648863	22.822550	9.530469
H	8.871903	23.455410	11.010528
H	9.178138	22.302445	4.267316
